/*--------------------------------*- C++ -*----------------------------------*\
| =========                 |                                                 |
| \\      /  F ield         | OpenFOAM: The Open Source CFD Toolbox           |
|  \\    /   O peration     | Version:  v2312                                 |
|   \\  /    A nd           | Website:  www.openfoam.com                      |
|    \\/     M anipulation  |                                                 |
\*---------------------------------------------------------------------------*/
FoamFile
{
    version     2.0;
    format      ascii;
    class       dictionary;
    object      blockMeshDict;
}
// * * * * * * * * * * * * * * * * * * * * * * * * * * * * * * * * * * * * * //

scale   1;

vertices
(
    (-1 -1 -1)
    ( 2 -1 -1)
    ( 2  0 -1)
    (-1  0 -1)
    (-1 -1  1)
    ( 2 -1  1)
    ( 2  0  1)
    (-1  0  1)
);

blocks
(
	// defines the faces front - 0123 back - 4567 creates 15 elements in x, 5 in y and 10 in Z
	// simpleGrading says that the blocks increase by scale (1 1 1) so if is was 2 1 1 the blocks in the x would increase to 2x the initial size.
    hex (0 1 2 3 4 5 6 7) (15 5 10) simpleGrading (1 1 1)

);

edges
();

boundary
(
    airFlow
    {
        type patch;
        faces
        (
            (3 7 6 2)
            (1 5 4 0)  //back
            (2 6 5 1)  //outlet
            (0 4 7 3)  //inlet
            (0 3 2 1)  //lowerWall
            (4 5 6 7)  //upperWall
        );
    }
);


// ************************************************************************* //
